7

  C    0.050957671   0.055164191  -0.032925885
  H   -1.024445640   0.072269161   0.117546172
  H    0.508348983  -0.636912672   0.667869998
  H    0.450713107   1.050360674   0.135265329
  H    0.274236028  -0.252091989  -1.050343280
 Br   -1.127499725  -2.785086575  -0.544987045
 Br   -1.988170545  -4.869236278  -0.917644496
