10

  C    0.005918650  -0.003496527   1.853878993
  F   -1.172542855   0.674817567   1.614587488
  H    0.830709843   0.546048289   1.407962789
  H   -0.056058041  -0.993747823   1.410355380
  H    0.156078035  -0.088328739   2.927069055
  C   -0.049317708   0.028459790  -1.327700737
  H   -0.129688006   0.073895718  -2.409200649
  H   -0.908133317  -0.496508904  -0.921664466
  H    0.861423536  -0.497150493  -1.056828203
  H   -0.023716156   1.035224021  -0.923037420
