10

  C    0.005918650  -0.003496527   1.853878993
  F   -1.172542855   0.674817567   1.614587488
  H    0.830709843   0.546048289   1.407962789
  H   -0.056058041  -0.993747823   1.410355380
  H    0.156078035  -0.088328739   2.927069055
  C    0.016068512  -0.009157555  -1.674678063
  H   -0.064301786   0.036278373  -2.756177975
  H   -0.842747097  -0.534126249  -1.268641792
  H    0.926809756  -0.534767838  -1.403805529
  H    0.041670064   0.997606676  -1.270014746
