10

  C    0.052125307  -0.031919514   1.840660293
 Cl   -1.491715802   0.847207403   1.755184684
  H    0.811909110   0.554725768   1.338264649
  H   -0.067811208  -0.989274688   1.347792712
  H    0.311197296  -0.173143788   2.883203118
  C    0.988909195  -0.557230067  -4.850598074
  H    0.916878162  -0.525576971  -5.933222499
  H    0.122517694  -1.069920748  -4.444629451
  H    1.893813856  -1.086063290  -4.566503381
  H    1.018707585   0.455069409  -4.459859390
