10

  C   -0.000028509  -0.000461929   2.158149022
 Cl   -1.454063734   0.838777303   1.616235012
 Cl    1.454144531   0.838659727   1.616208515
 Cl   -0.000087400  -1.679795034   1.617802938
  H    0.000005696   0.000267325   3.239305949
  C   -0.000021947   0.000309671  -1.447669242
  H    0.000025741  -0.001559340  -2.533425296
  H   -0.885499129  -0.510424334  -1.082537721
  H    0.885624491  -0.510274051  -1.082501293
  H   -0.000092090   1.023486067  -1.085157043
