9

  C    0.179810349  -0.077197552  -0.118024640
 Cl    1.722679479   0.399031247   0.628076100
  H    0.130360699  -1.159076002  -0.155096513
  H   -0.630477191   0.314338739   0.485507040
  H    0.134959164   0.335748179  -1.118887999
  O    5.370559065   0.948044301   1.503776174
  C    5.667513738   0.309502578   0.518716726
  H    6.717249975   0.125691600   0.241923463
  H    4.903139273  -0.117484825  -0.146623710
