9

  C    0.081577546  -0.079576968  -0.122248507
 Br    1.796548323   0.397128500   0.629679005
  H    0.013255521  -1.160016154  -0.156779811
  H   -0.692267287   0.331402893   0.514488442
  H    0.018180933   0.339827727  -1.118895585
  O    6.687246694   1.117969056   1.779976461
  C    7.156648279   0.512052438   0.842144861
  H    8.243768827   0.416577443   0.699691362
  H    6.518305131   0.028317185   0.088109633
