9

  C    0.081577546  -0.079576968  -0.122248507
 Br    1.796548323   0.397128500   0.629679005
  H    0.013255521  -1.160016154  -0.156779811
  H   -0.692267287   0.331402893   0.514488442
  H    0.018180933   0.339827727  -1.118895585
  O    5.303276826   0.913985589   1.454465277
  C    5.772678411   0.308068971   0.516633677
  H    6.859798959   0.212593976   0.374180178
  H    5.134335263  -0.175666282  -0.237401551
