9

  C    0.081577546  -0.079576968  -0.122248507
 Br    1.796548323   0.397128500   0.629679005
  H    0.013255521  -1.160016154  -0.156779811
  H   -0.692267287   0.331402893   0.514488442
  H    0.018180933   0.339827727  -1.118895585
  O    8.318204187   1.358356055   2.163579397
  C    8.787605772   0.752439437   1.225747797
  H    9.874726320   0.656964442   1.083294298
  H    8.149262624   0.268704184   0.471712569
