9

  C    0.228087368  -0.006027308  -0.103512024
 Cl    1.808884452   0.632806687   0.291464994
  F    0.331959317  -1.250132504  -0.555496397
  F   -0.551167778  -0.013339450   0.969446208
  F   -0.350921815   0.733335757  -1.039651530
  O    4.492923064   1.154616740   0.754809897
  C    5.040753347   0.124032055   0.430525272
  H    6.131705480   0.001860060   0.495812286
  H    4.473390047  -0.740743101   0.054581814
