9

  C    0.228087368  -0.006027308  -0.103512024
 Cl    1.808884452   0.632806687   0.291464994
  F    0.331959317  -1.250132504  -0.555496397
  F   -0.551167778  -0.013339450   0.969446208
  F   -0.350921815   0.733335757  -1.039651530
  O    4.343815185   1.125628338   0.729069442
  C    4.891645468   0.095043653   0.404784817
  H    5.982597601  -0.027128342   0.470071831
  H    4.324282168  -0.769731503   0.028841359
