9

  C    0.092348417  -0.047899443  -0.084180609
 Br    1.850295174   0.401756602   0.541215366
  F   -0.041248424  -1.365231569  -0.186834437
  F   -0.830122197   0.403465307   0.756154716
  F   -0.127685037   0.489606579  -1.278313038
  O    6.247766320   1.086903392   1.546672021
  C    6.937346673   0.468082702   0.765336875
  H    8.034930606   0.485968722   0.823247693
  H    6.498009732  -0.140842307  -0.038793621
