9

  C    0.092348417  -0.047899443  -0.084180609
 Br    1.850295174   0.401756602   0.541215366
  F   -0.041248424  -1.365231569  -0.186834437
  F   -0.830122197   0.403465307   0.756154716
  F   -0.127685037   0.489606579  -1.278313038
  O    5.075133049   0.904201586   1.278556123
  C    5.764713402   0.285380896   0.497220977
  H    6.862297335   0.303266916   0.555131795
  H    5.325376461  -0.323544113  -0.306909519
