9

  C    0.092348417  -0.047899443  -0.084180609
 Br    1.850295174   0.401756602   0.541215366
  F   -0.041248424  -1.365231569  -0.186834437
  F   -0.830122197   0.403465307   0.756154716
  F   -0.127685037   0.489606579  -1.278313038
  O    4.342237254   0.790012957   1.110983687
  C    5.031817607   0.171192267   0.329648541
  H    6.129401540   0.189078287   0.387559359
  H    4.592480666  -0.437732742  -0.474481955
