9

  C    0.092348417  -0.047899443  -0.084180609
 Br    1.850295174   0.401756602   0.541215366
  F   -0.041248424  -1.365231569  -0.186834437
  F   -0.830122197   0.403465307   0.756154716
  F   -0.127685037   0.489606579  -1.278313038
  O    7.713557909   1.315280650   1.881816894
  C    8.403138262   0.696459960   1.100481748
  H    9.500722195   0.714345980   1.158392566
  H    7.963801321   0.087534951   0.296351252
