18

  C   -0.189833176  -0.645396435   0.069807761
  C    1.121636324  -0.354065576   0.439096514
  C    1.486520953   0.962572632   0.712107225
  C    0.549329390   1.989209324   0.617868956
  C   -0.757627135   1.681862630   0.246856908
  C   -1.138190460   0.370551816  -0.028582325
 Br   -2.038462778   3.070459841   0.115165429
  H    1.852935245  -1.146434699   0.514119204
  H    0.825048723   3.012176989   0.829385472
  H    2.502259769   1.196433556   1.000317333
  H   -2.157140187   0.151608161  -0.313181471
  H   -0.480820487  -1.664983631  -0.142918416
  S   -3.953617801   5.473802035  -0.783154902
  H   -4.619965755   4.540307124  -1.467827111
  C   -2.624512849   5.714810711  -1.995583288
  H   -1.963751622   6.466574297  -1.573015588
  H   -2.061129143   4.799053557  -2.144592272
  H   -3.014699233   6.081665372  -2.939480831
