17

  H    0.002144194   0.361043475   0.029799709
  C    0.015020592   0.274789738   1.107648016
  C    1.227632658   0.296655040   1.794629427
  C    1.243958826   0.183702791   3.183703934
  C    0.047958213   0.048915002   3.886484583
  C   -1.165135654   0.026954348   3.200213281
  C   -1.181832083   0.139828643   1.810376587
  H    2.155807907   0.399177037   1.249441585
  H    2.184979344   0.198598553   3.716170761
  H    0.060934662  -0.040672756   4.964014252
  H   -2.093220602  -0.078628959   3.745125056
  H   -2.122845437   0.123257119   1.277645797
 Br   -0.131162271  -4.094656459   1.982344739
  C    0.187163569  -5.989644909   1.917276960
  F    0.216113237  -6.412888770   0.659737352
  F    1.349147573  -6.284443735   2.486550270
  F   -0.772823769  -6.644194763   2.558607527
