17

  H   -0.034768801   0.294585208   0.057187563
  C   -0.017014316   0.261960410   1.141050258
  C    1.201240991   0.285824105   1.820042020
  C    1.223051195   0.249206224   3.213256330
  C    0.027949888   0.188858607   3.927964260
  C   -1.189662929   0.164642236   3.250361662
  C   -1.212924754   0.201264985   1.856906008
  H    2.130707182   0.332626520   1.263780775
  H    2.169947323   0.266273588   3.740739601
  H    0.045570678   0.158814598   5.011482817
  H   -2.118962097   0.116212797   3.806470317
  H   -2.160018595   0.183694220   1.329378876
  I    0.009924980  -4.953771877   1.789886979
  C    0.112677856  -7.071513012   1.912147458
  F    0.141788187  -7.615217028   0.697498713
  F    1.208729481  -7.455112908   2.563001431
  F   -0.943585940  -7.560040376   2.558316300
