9

  O   -0.822589646   0.130751992  -0.004670180
  H    0.151322978   0.236946671  -0.005208468
  C   -1.094495060  -1.171586630  -0.000235811
  F   -2.408360005  -1.348046797   0.002362133
  F   -0.590968467  -1.812045684  -1.074390844
  F   -0.587525050  -1.805322781   1.076316471
  O    2.009153157   0.326436408  -0.005930179
  H    2.463831345  -0.044705763  -0.765860376
  H    2.463838442  -0.045675585   0.753525696
