9

  O   -0.822589646   0.130751992  -0.004670180
  H    0.151322978   0.236946671  -0.005208468
  C   -1.094495060  -1.171586630  -0.000235811
  F   -2.408360005  -1.348046797   0.002362133
  F   -0.590968467  -1.812045684  -1.074390844
  F   -0.587525050  -1.805322781   1.076316471
  O    1.832226462   0.317914034  -0.005861448
  H    2.286904650  -0.053228137  -0.765791645
  H    2.286911747  -0.054197959   0.753594427
