9

  O   -0.778073626   0.205937567  -0.003744167
  H    0.204621770   0.306150037  -0.005250247
  C   -1.064673043  -1.099865265  -0.000037626
 Cl   -2.818149715  -1.288073131   0.002340120
 Cl   -0.388554792  -1.946140752  -1.447422763
 Cl   -0.385461107  -1.938612521   1.450299192
  O    1.589639888   0.362962563  -0.006822050
  H    1.959886516  -0.097089439  -0.765067656
  H    1.960893203  -0.093909248   0.752895276
