9

  O   -0.778073626   0.205937567  -0.003744167
  H    0.204621770   0.306150037  -0.005250247
  C   -1.064673043  -1.099865265  -0.000037626
 Cl   -2.818149715  -1.288073131   0.002340120
 Cl   -0.388554792  -1.946140752  -1.447422763
 Cl   -0.385461107  -1.938612521   1.450299192
  O    1.762754664   0.370063617  -0.007018511
  H    2.133001292  -0.089988385  -0.765264117
  H    2.134007979  -0.086808194   0.752698815
