8

 Cl    0.377733920  -0.000000483   0.006430557
  H    0.049409273  -0.000001882   1.255616511
  O   -0.493929995   0.000016102   4.910625350
  H   -1.306143442   0.000003634   5.421843334
  C    0.610850861   0.000010111   5.809376559
  H    1.507482009   0.000008593   5.198211431
  H    0.619210401   0.888990436   6.439015891
  H    0.619206057  -0.888972558   6.439012624
