8

 Cl    0.377733920  -0.000000483   0.006430557
  H    0.049409273  -0.000001882   1.255616511
  O   -0.167935257   0.000005312   2.717679394
  H   -0.980148704  -0.000007156   3.228897378
  C    0.936845599  -0.000000679   3.616430603
  H    1.833476747  -0.000002197   3.005265475
  H    0.945205139   0.888979646   4.246069935
  H    0.945200795  -0.888983348   4.246066668
