8

  I    0.494360760   0.000136728  -0.299186147
  H   -0.026818451   0.000009824   1.227779722
  O   -0.245253455  -0.000163320   2.813801553
  H   -1.002898889   0.000080715   3.403456537
  C    0.936377987   0.000016946   3.606757410
  H    1.774388380  -0.000084467   2.916543411
  H    1.005613931   0.888940015   4.233523269
  H    1.005660912  -0.888676809   4.233843482
