11

  H    0.855171335  -0.000008119  -0.588786261
  O    0.271546070   0.000016357   0.175592508
  C    1.084050448   0.000001807   1.335251990
  H    0.417831608  -0.000002486   2.192984764
  H    1.718489566  -0.886312946   1.398035525
  H    1.718498554   0.886309236   1.398050411
  F    1.162337370   0.000005859  -2.827448284
  C   -0.148157117   0.000000207  -3.291287870
  H   -0.130448365  -0.000000149  -4.376850151
  H   -0.649617850  -0.888578411  -2.920609091
  H   -0.649624903   0.888574998  -2.920609516
