12

  H   -1.899860010  -2.259358467   2.765489689
  H   -2.366621504   0.164025905   2.586228643
  C    0.210448920  -1.989250472   3.077360568
  C   -1.092870161  -1.545466795   2.858706936
  C   -1.355561839  -0.180251563   2.757200232
  C   -0.316011493   0.740908518   2.874996010
  C    0.987027617   0.296319723   3.093010173
  C    1.250698195  -1.068680909   3.194708037
  H   -0.520087207   1.800223431   2.795428843
  H    1.794349255   1.010631673   3.182863053
  H    0.414286218  -3.048499852   3.158948763
  H    2.262222937  -1.412566832   3.362250802
