12

  H   -1.705010929  -1.318559522   3.544527795
  H   -2.102865726   1.126077463   3.560220201
  C    0.423732776  -1.131468813   3.786187595
  C   -0.872758914  -0.635526151   3.651502952
  C   -1.096935766   0.740907865   3.662203790
  C   -0.025163123   1.620953755   3.809028666
  C    1.270625842   1.124611813   3.944253638
  C    1.495363264  -0.251274354   3.932892341
  H   -0.199395437   2.688277990   3.816783673
  H    2.101837399   1.807104902   4.055833573
  H    0.597885618  -2.199264777   3.780102404
  H    2.500635087  -0.636273990   4.036508584
