12

  H   -1.566827405  -1.371768577   6.543946624
  H   -1.964682202   1.072868408   6.559639030
  C    0.561916300  -1.184677868   6.785606424
  C   -0.734575390  -0.688735206   6.650921781
  C   -0.958752242   0.687698810   6.661622619
  C    0.113020401   1.567744700   6.808447495
  C    1.408809366   1.071402758   6.943672467
  C    1.633546788  -0.304483409   6.932311170
  H   -0.061211913   2.635068935   6.816202502
  H    2.240020923   1.753895847   7.055252402
  H    0.736069142  -2.252473832   6.779521233
  H    2.638818611  -0.689483045   7.035927413
