12

  H   -1.752162035  -1.300403481   2.521063403
  H   -2.150016832   1.144233504   2.536755809
  C    0.376581670  -1.113312772   2.762723203
  C   -0.919910020  -0.617370110   2.628038560
  C   -1.144086872   0.759063906   2.638739398
  C   -0.072314229   1.639109796   2.785564274
  C    1.223474736   1.142767854   2.920789246
  C    1.448212158  -0.233118313   2.909427949
  H   -0.246546543   2.706434031   2.793319281
  H    2.054686293   1.825260943   3.032369181
  H    0.550734512  -2.181108736   2.756638012
  H    2.453483981  -0.618117949   3.013044192
