12

  H   -1.744210398  -1.303465344   2.693662053
  H   -2.142065195   1.141171641   2.709354459
  C    0.384533307  -1.116374635   2.935321853
  C   -0.911958383  -0.620431973   2.800637210
  C   -1.136135235   0.756002043   2.811338048
  C   -0.064362592   1.636047933   2.958162924
  C    1.231426373   1.139705991   3.093387896
  C    1.456163795  -0.236180176   3.082026599
  H   -0.238594906   2.703372168   2.965917931
  H    2.062637930   1.822199080   3.204967831
  H    0.558686149  -2.184170599   2.929236662
  H    2.461435618  -0.621179812   3.185642842
