10

  O   -5.114880037  -0.000101769  -4.966718551
  C   -6.262296880   0.001689399  -4.559516448
  C   -7.421404692  -0.000807104  -5.533977963
  C   -6.550513246   0.006416439  -3.073364931
  H   -7.336070403   0.873048314  -6.177494926
  H   -7.337152714  -0.878953738  -6.171754258
  H   -8.391532060   0.001383011  -5.047133663
  H   -7.611377564   0.007800492  -2.843393582
  H   -6.080847336  -0.867370869  -2.624902053
  H   -6.079714945   0.882314372  -2.630257771
