10

  O   -3.667318495   0.000158242  -3.590811224
  C   -4.814735338   0.001949410  -3.183609121
  C   -5.973843150  -0.000547093  -4.158070636
  C   -5.102951704   0.006676450  -1.697457604
  H   -5.888508861   0.873308325  -4.801587599
  H   -5.889591172  -0.878693727  -4.795846931
  H   -6.943970518   0.001643022  -3.671226336
  H   -6.163816022   0.008060503  -1.467486255
  H   -4.633285794  -0.867110858  -1.248994726
  H   -4.632153403   0.882574383  -1.254350444
