10

  O   -3.314430450   0.000221627  -3.255391116
  C   -4.461847293   0.002012795  -2.848189013
  C   -5.620955105  -0.000483708  -3.822650528
  C   -4.750063659   0.006739835  -1.362037496
  H   -5.535620816   0.873371710  -4.466167491
  H   -5.536703127  -0.878630342  -4.460426823
  H   -6.591082473   0.001706407  -3.335806228
  H   -5.810927977   0.008123888  -1.132066147
  H   -4.280397749  -0.867047473  -0.913574618
  H   -4.279265358   0.882637768  -0.918930336
