10

  O   -4.070836971   0.001193128  -3.895471614
  C   -5.228304001   0.030798890  -3.516378253
  C   -5.554077884   0.031089327  -2.038712388
  C   -6.360613151   0.067896547  -4.519954170
  H   -6.235225071   0.944441370  -5.153184049
  H   -6.283803456  -0.806975147  -5.163177803
  H   -7.342100495   0.092454599  -4.057363983
  H   -6.620173017   0.059206435  -1.836908014
  H   -5.120092235  -0.858630147  -1.585465133
  H   -5.071930760   0.890207985  -1.575227040
