10

  O   -3.485153736   0.000524763  -3.375257432
  C   -4.642620766   0.030130525  -2.996164071
  C   -4.968394649   0.030420962  -1.518498206
  C   -5.774929916   0.067228182  -3.999739988
  H   -5.649541836   0.943773005  -4.632969867
  H   -5.698120221  -0.807643512  -4.642963621
  H   -6.756417260   0.091786234  -3.537149801
  H   -6.034489782   0.058538070  -1.316693832
  H   -4.534409000  -0.859298512  -1.065250951
  H   -4.486247525   0.889539620  -1.055012858
