10

  O   -3.602290383   0.000658436  -3.479300268
  C   -4.759757413   0.030264198  -3.100206907
  C   -5.085531296   0.030554635  -1.622541042
  C   -5.892066563   0.067361855  -4.103782824
  H   -5.766678483   0.943906678  -4.737012703
  H   -5.815256868  -0.807509839  -4.747006457
  H   -6.873553907   0.091919907  -3.641192637
  H   -6.151626429   0.058671743  -1.420736668
  H   -4.651545647  -0.859164839  -1.169293787
  H   -4.603384172   0.889673293  -1.159055694
