10

  O   -4.245356062  -0.000190456  -4.083747911
  C   -4.096034445   0.003724494  -5.293662595
  C   -2.709163007   0.013881656  -5.896691852
  C   -5.299508112  -0.001562659  -6.210066122
  H   -2.176454233   0.891283442  -5.533323227
  H   -2.165494388  -0.858530330  -5.537563305
  H   -2.716093860   0.016473528  -6.981974143
  H   -5.911685994   0.870081267  -5.985262471
  H   -5.900787537  -0.881814961  -5.989434168
  H   -5.035463366   0.002592183  -7.262733528
