10

  O   -3.892575443  -0.000134323  -3.763885079
  C   -3.743253826   0.003780627  -4.973799763
  C   -2.356382388   0.013937789  -5.576829020
  C   -4.946727493  -0.001506526  -5.890203290
  H   -1.823673614   0.891339575  -5.213460395
  H   -1.812713769  -0.858474197  -5.217700473
  H   -2.363313241   0.016529661  -6.662111311
  H   -5.558905375   0.870137400  -5.665399639
  H   -5.548006918  -0.881758828  -5.669571336
  H   -4.682682747   0.002648316  -6.942870696
