10

  O   -6.362039778  -0.000527259  -6.002924906
  C   -6.212718161   0.003387691  -7.212839590
  C   -4.825846723   0.013544853  -7.815868847
  C   -7.416191828  -0.001899462  -8.129243117
  H   -4.293137949   0.890946639  -7.452500222
  H   -4.282178104  -0.858867133  -7.456740300
  H   -4.832777576   0.016136725  -8.901151138
  H   -8.028369710   0.869744464  -7.904439466
  H   -8.017471253  -0.882151764  -7.908611163
  H   -7.152147082   0.002255380  -9.181910523
