10

  O   -4.598136681  -0.000246590  -4.403610744
  C   -4.448815064   0.003668360  -5.613525428
  C   -3.061943626   0.013825522  -6.216554685
  C   -5.652288731  -0.001618793  -6.529928955
  H   -2.529234852   0.891227308  -5.853186060
  H   -2.518275007  -0.858586464  -5.857426138
  H   -3.068874479   0.016417394  -7.301836976
  H   -6.264466613   0.870025133  -6.305125304
  H   -6.253568156  -0.881871095  -6.309297001
  H   -5.388243985   0.002536049  -7.582596361
