10

  O   -5.186104380  -0.000340146  -4.936715464
  C   -5.036782763   0.003574804  -6.146630148
  C   -3.649911325   0.013731966  -6.749659405
  C   -6.240256430  -0.001712349  -7.063033675
  H   -3.117202551   0.891133752  -6.386290780
  H   -3.106242706  -0.858680020  -6.390530858
  H   -3.656842178   0.016323838  -7.834941696
  H   -6.852434312   0.869931577  -6.838230024
  H   -6.841535855  -0.881964651  -6.842401721
  H   -5.976211684   0.002442493  -8.115701081
