13

  N   -4.329817673   0.003381180   3.852202686
  C   -5.157907454  -1.074188647   3.346638223
  C   -4.040217961  -0.203106190   5.257867864
  C   -4.991189696   1.279045596   3.657820827
  H   -4.953430764  -0.220034849   5.874834073
  H   -3.520188047  -1.150495662   5.390248709
  H   -3.396553227   0.596323411   5.621362652
  H   -5.952692740   1.337466862   4.193527322
  H   -4.350378016   2.083157597   4.015861399
  H   -5.180292596   1.436721860   2.597233818
  H   -6.127865812  -1.135386370   3.866564284
  H   -5.347701031  -0.924288288   2.285035126
  H   -4.641345787  -2.024305265   3.472646163
