13

  N   -3.922326772   0.003520015   3.619518020
  C   -4.750416553  -1.074049812   3.113953557
  C   -3.632727060  -0.202967355   5.025183198
  C   -4.583698795   1.279184431   3.425136161
  H   -4.545939863  -0.219896014   5.642149407
  H   -3.112697146  -1.150356827   5.157564043
  H   -2.989062326   0.596462246   5.388677986
  H   -5.545201839   1.337605697   3.960842656
  H   -3.942887115   2.083296432   3.783176733
  H   -4.772801695   1.436860695   2.364549152
  H   -5.720374911  -1.135247535   3.633879618
  H   -4.940210130  -0.924149453   2.052350460
  H   -4.233854886  -2.024166430   3.239961497
