13

  N   -4.465561134   0.003334932   3.929714654
  C   -5.293650915  -1.074234895   3.424150191
  C   -4.175961422  -0.203152438   5.335379832
  C   -5.126933157   1.278999348   3.735332795
  H   -5.089174225  -0.220081097   5.952346041
  H   -3.655931508  -1.150541910   5.467760677
  H   -3.532296688   0.596277163   5.698874620
  H   -6.088436201   1.337420614   4.271039290
  H   -4.486121477   2.083111349   4.093373367
  H   -5.316036057   1.436675612   2.674745786
  H   -6.263609273  -1.135432618   3.944076252
  H   -5.483444492  -0.924334536   2.362547094
  H   -4.777089248  -2.024351513   3.550158131
