13

  N   -4.729810022   0.003082752   4.081002819
  C   -5.555630022  -1.075642248   3.572847819
  C   -4.437011022  -0.203575248   5.486464819
  C   -5.388594022   1.280267752   3.884319819
  H   -5.348126022  -0.220858248   6.105352819
  H   -3.915519022  -1.150499248   5.616606819
  H   -3.791868022   0.595765752   5.847600819
  H   -6.350012022   1.341552752   4.418550819
  H   -4.745533022   2.083062752   4.241350819
  H   -5.575073022   1.436768752   2.823071819
  H   -6.525862022  -1.139100248   4.090628819
  H   -5.742638022  -0.924830248   2.510856819
  H   -5.036706022  -2.024587248   3.698181819
