13

  N   -4.469679000   0.003227000   3.932338000
  C   -5.295499000  -1.075498000   3.424183000
  C   -4.176880000  -0.203431000   5.337800000
  C   -5.128463000   1.280412000   3.735655000
  H   -5.087995000  -0.220714000   5.956688000
  H   -3.655388000  -1.150355000   5.467942000
  H   -3.531737000   0.595910000   5.698936000
  H   -6.089881000   1.341697000   4.269886000
  H   -4.485402000   2.083207000   4.092686000
  H   -5.314942000   1.436913000   2.674407000
  H   -6.265731000  -1.138956000   3.941964000
  H   -5.482507000  -0.924686000   2.362192000
  H   -4.776575000  -2.024443000   3.549517000
