13

  N   -3.949677422   0.003515352   3.635157219
  C   -4.775497422  -1.075209648   3.127002219
  C   -3.656878422  -0.203142648   5.040619219
  C   -4.608461422   1.280700352   3.438474219
  H   -4.567993422  -0.220425648   5.659507219
  H   -3.135386422  -1.150066648   5.170761219
  H   -3.011735422   0.596198352   5.401755219
  H   -5.569879422   1.341985352   3.972705219
  H   -3.965400422   2.083495352   3.795505219
  H   -4.794940422   1.437201352   2.377226219
  H   -5.745729422  -1.138667648   3.644783219
  H   -4.962505422  -0.924397648   2.065011219
  H   -4.256573422  -2.024154648   3.252336219
