13

  N   -4.209721622   0.003371152   3.783772419
  C   -5.035541622  -1.075353848   3.275617419
  C   -3.916922622  -0.203286848   5.189234419
  C   -4.868505622   1.280556152   3.587089419
  H   -4.828037622  -0.220569848   5.808122419
  H   -3.395430622  -1.150210848   5.319376419
  H   -3.271779622   0.596054152   5.550370419
  H   -5.829923622   1.341841152   4.121320419
  H   -4.225444622   2.083351152   3.944120419
  H   -5.054984622   1.437057152   2.525841419
  H   -6.005773622  -1.138811848   3.793398419
  H   -5.222549622  -0.924541848   2.213626419
  H   -4.516617622  -2.024298848   3.400951419
