13

  N   -7.070207822   0.001784952   5.418539619
  C   -7.896027822  -1.076940048   4.910384619
  C   -6.777408822  -0.204873048   6.824001619
  C   -7.728991822   1.278969952   5.221856619
  H   -7.688523822  -0.222156048   7.442889619
  H   -6.255916822  -1.151797048   6.954143619
  H   -6.132265822   0.594467952   7.185137619
  H   -8.690409822   1.340254952   5.756087619
  H   -7.085930822   2.081764952   5.578887619
  H   -7.915470822   1.435470952   4.160608619
  H   -8.866259822  -1.140398048   5.428165619
  H   -8.083035822  -0.926128048   3.848393619
  H   -7.377103822  -2.025885048   5.035718619
