13

  N   -5.903903371  -0.002117509   4.758022033
  C   -6.753559371   1.032952491   4.196916033
  C   -6.523375371  -1.306233509   4.604037033
  C   -5.631922371   0.268424491   6.158334033
  H   -6.550526371   0.283510491   6.764463033
  H   -4.968348371  -0.497477509   6.556429033
  H   -5.138689371   1.234227491   6.254976033
  H   -7.730192371   1.087368491   4.701587033
  H   -6.262138371   1.999955491   4.290487033
  H   -6.922027371   0.834390491   3.139752033
  H   -7.488140371  -1.372354509   5.129709033
  H   -6.691371371  -1.508751509   3.547563033
  H   -5.861202371  -2.074579509   4.999652033
