13

  N   -5.253982074  -0.002047263   4.387443283
  C   -6.103638074   1.033022737   3.826337283
  C   -5.873454074  -1.306163263   4.233458283
  C   -4.982001074   0.268494737   5.787755283
  H   -5.900605074   0.283580737   6.393884283
  H   -4.318427074  -0.497407263   6.185850283
  H   -4.488768074   1.234297737   5.884397283
  H   -7.080271074   1.087438737   4.331008283
  H   -5.612217074   2.000025737   3.919908283
  H   -6.272106074   0.834460737   2.769173283
  H   -6.838219074  -1.372284263   4.759130283
  H   -6.041450074  -1.508681263   3.176984283
  H   -5.211281074  -2.074509263   4.629073283
