13

  N   -4.603902000  -0.001977000   4.016774000
  C   -5.453558000   1.033093000   3.455668000
  C   -5.223374000  -1.306093000   3.862789000
  C   -4.331921000   0.268565000   5.417086000
  H   -5.250525000   0.283651000   6.023215000
  H   -3.668347000  -0.497337000   5.815181000
  H   -3.838688000   1.234368000   5.513728000
  H   -6.430191000   1.087509000   3.960339000
  H   -4.962137000   2.000096000   3.549239000
  H   -5.622026000   0.834531000   2.398504000
  H   -6.188139000  -1.372214000   4.388461000
  H   -5.391370000  -1.508611000   2.806315000
  H   -4.561201000  -2.074439000   4.258404000
