13

  N   -4.214014521  -0.001934859   3.794463983
  C   -5.063670521   1.033135141   3.233357983
  C   -4.833486521  -1.306050859   3.640478983
  C   -3.942033521   0.268607141   5.194775983
  H   -4.860637521   0.283693141   5.800904983
  H   -3.278459521  -0.497294859   5.592870983
  H   -3.448800521   1.234410141   5.291417983
  H   -6.040303521   1.087551141   3.738028983
  H   -4.572249521   2.000138141   3.326928983
  H   -5.232138521   0.834573141   2.176193983
  H   -5.798251521  -1.372171859   4.166150983
  H   -5.001482521  -1.508568859   2.584004983
  H   -4.171313521  -2.074396859   4.036093983
