7

  N    0.062756921   0.066212897   2.898236083
  H    1.014426407   0.087661252   3.240991999
  C   -0.624414885  -1.146103570   3.358764854
  H   -1.638147646  -1.143501281   2.967736960
  H   -0.115908579  -2.013959692   2.947894558
  H   -0.666430044  -1.244290557   4.443567046
  H   -0.394880265   0.893266059   3.259027891
