7

  N    0.093570448   0.099838374   3.820683566
  H    1.045239934   0.121286729   4.163439482
  C   -0.593601358  -1.112478093   4.281212337
  H   -1.607334119  -1.109875804   3.890184443
  H   -0.085095052  -1.980334215   3.870342041
  H   -0.635616517  -1.210665080   5.366014529
  H   -0.364066738   0.926891536   4.181475374
