56

O         -1.51347       -8.48787        4.48761
O         -3.68218       -6.37562        3.17807
O         -4.88688       -8.46688       10.36551
C         -0.58425       -5.74290       12.18713
C         -2.49127       -4.17471       11.89763
C          0.33410       -4.62723        9.33004
C         -0.57752       -3.97592       10.35116
C         -1.43059       -4.99845       11.14015
C         -2.14063       -5.94071       10.12015
C         -1.22383       -6.61910        9.05181
C         -0.42488       -5.50302        8.35027
C         -3.09386       -6.95063       10.76586
C         -3.99242       -7.58578        9.70790
C         -3.13732       -8.24371        8.64316
C         -2.17440       -7.27382        7.98145
C         -0.24235       -7.67269        9.60292
C         -1.42658       -7.86537        6.77677
C         -2.12581       -7.62285        5.44137
C         -1.99315       -6.15647        4.95423
Cl         1.16713       -3.32841        8.34370
C         -2.57213       -6.04418        3.54587
N         -1.57904       -5.54260        2.71664
C         -0.36033       -5.35767        3.34338
C         -0.54057       -5.69380        4.80308
O          0.66957       -5.02453        2.77840
C         -3.24469       -9.55492        8.38490
H          0.27297       -6.26645       11.74693
H         -1.18951       -6.48654       12.72865
H         -0.19848       -5.02394       12.92720
H         -3.18659       -3.68662       11.19444
H         -1.99783       -3.38794       12.49029
H         -3.08126       -4.79492       12.58959
H         -3.73576       -6.46446       11.51455
H         -2.54189       -7.75449       11.27901
H         -2.13708       -8.61763        3.75516
H         -5.51703       -8.79534        9.70394
H          1.16899       -5.16944        9.79056
H         -1.25896       -3.29943        9.81213
H          0.00164       -3.35556       11.05220
H         -2.77525       -5.25329        9.52516
H          0.29429       -5.92710        7.63588
H         -1.12290       -4.85983        7.78558
H         -4.55984       -6.76772        9.21663
H         -2.79184       -6.42884        7.61843
H          0.10757       -8.32201        8.78591
H         -0.69763       -8.31523       10.36970
H          0.65147       -7.18697       10.01757
H         -0.40749       -7.46043        6.71199
H         -1.29878       -8.95065        6.88064
H         -3.20140       -7.85452        5.53593
H         -2.58357       -5.49365        5.60652
H         -1.71247       -5.41292        1.71408
H         -0.26215       -4.83101        5.42464
H          0.17099       -6.50589        5.01927
H         -2.64398      -10.06307        7.62842
H         -3.94974      -10.16696        8.95269
