13

C          1.55810       -0.05004       10.90719
N          1.46802        0.07255        9.46034
C          2.47845        0.36653        8.55662
N          2.09038        0.26648        7.30725
C          0.76947       -0.13310        7.37800
C         -0.15960       -0.49368        6.34404
O         -0.04363       -0.48159        5.12277
N         -1.38729       -0.92921        6.92331
C         -1.68771       -0.98967        8.26256
N         -2.92397       -1.42252        8.60508
N         -0.83159       -0.64344        9.20539
C          0.36336       -0.25540        8.71366
Cl         1.16713       -3.32841        8.34370
