16

N         -2.32900       -2.23600        1.77300
C         -2.13100       -3.23900        0.86400
N         -1.68500       -4.39400        1.35200
N         -2.34100       -3.11300       -0.42900
C         -2.78700       -1.88300       -0.74700
C         -3.01600       -0.81200        0.08200
C         -2.78200       -0.96000        1.46700
O         -2.93600       -0.13000        2.36700
N         -3.47200        0.27900       -0.63900
C         -3.50000       -0.13900       -1.87200
N         -3.09400       -1.44100       -2.00700
H         -2.10000       -2.37200        2.74200
H         -1.75400       -5.14700        0.67400
H         -2.02900       -4.66500        2.26400
H         -3.80100        0.45200       -2.72700
H         -3.03100       -1.98000       -2.85700
