125

H        105.55700       51.20000      92.28000
C        105.05300       51.10100      93.60000
C        103.63900       50.57800      93.60800
O        102.80000       51.38500      92.74300
C        103.44700       49.17300      93.08200
O        103.78600       48.19400      94.03100
C        101.97600       49.15300      92.68500
O        101.14400       48.92100      93.81200
C        101.77500       50.58800      92.18700
N        101.86100       50.68100      90.72100
C        102.95100       51.04500      89.97600
N        102.72200       51.02300      88.69200
C        101.39700       50.61800      88.58000
C        100.57400       50.41300      87.43300
O        100.85000       50.54600      86.23600
N        99.29300       50.00700      87.79100
C        98.86100       49.82000      89.08100
N        97.59100       49.42100      89.23600
N        99.61500       50.00900      90.15000
C        100.85900       50.40600      89.83000
P        104.77900       47.01100      93.61100
O        104.89800       46.10100      94.77400
O        106.01200       47.61700      93.04300
O        104.01800       46.29100      92.41200
C        103.26600       45.10800      92.62000
C        103.80700       43.97000      91.78800
O        103.46400       44.16700      90.38000
C        105.33100       43.77500      91.82600
O        105.60700       42.37800      91.70100
C        105.76900       44.45400      90.53600
O        107.03800       44.06000      90.06600
C        104.63800       44.01800      89.60600
N        104.52300       44.73700      88.32800
C        105.10000       45.93300      88.00200
N        104.85100       46.32800      86.78400
C        104.07700       45.31600      86.26100
C        103.50900       45.19000      84.97400
O        103.58700       45.97100      84.03600
N        102.78500       44.02200      84.81100
C        102.62300       43.08300      85.78400
N        101.88000       42.02800      85.42100
N        103.15200       43.18500      87.00700
C        103.86700       44.32100      87.18600
O        98.25300       40.37800      84.58200
O        94.90400       41.17100      83.78600
O        95.75300       41.34800      90.32600
C        99.66500       44.92400      91.14000
C        97.53500       46.15100      91.06100
C        100.11500       45.71600      88.25800
C        99.17300       46.42500      89.20900
C        98.56900       45.42800      90.20900
C        97.92000       44.25400      89.42700
C        98.79500       43.56100      88.33800
C        99.40000       44.65600      87.44600
C        97.23300       43.22100      90.32000
C        96.35400       42.31100      89.48800
C        97.12700       41.68300      88.36200
C        97.84600       42.67500      87.48400
C        99.93000       42.71200      88.92000
C        98.51800       42.07300      86.24400
C        97.55500       41.41100      85.27000
C        96.96400       42.40800      84.26200
C        100.89200       46.91100      87.16600
C        95.86000       41.82900      83.40800
N        96.10100       42.17700      82.10700
C        97.25400       42.88400      81.92700
C        97.93900       43.02100      83.25900
O        97.65300       43.31500      80.85600
C        97.14500       40.38400      88.15800
H        100.40940       44.40955      90.56894
H        99.24182       44.25469      91.85962
H        100.11338       45.75385      91.64518
H        96.74958       46.51789      90.43378
H        98.00013       46.97120      91.56679
H        97.12857       45.47205      91.78124
H        96.63111       43.72630      91.04615
H        97.97984       42.63188      90.80997
H        103.31523       44.83938      93.65456
H        102.25308       45.29210      92.32846
H        103.35435       43.10567      92.22726
H        105.06879       52.07032      94.05286
H        105.66909       50.41802      94.14669
H        103.38466       50.60602      94.64695
H        104.09038       48.93703      92.26025
H        101.73469       48.38867      91.97615
H        101.32364       49.59111      94.48993
H        100.80067       50.91701      92.48251
H        103.85958       51.30936      90.38785
H        98.64805       49.84137      87.06585
H        97.02040       49.27716      88.44672
H        97.22866       49.27174      90.13915
H        105.80221       44.14800      92.71129
H        105.18180       42.03486      90.89953
H        105.90248       45.51101      90.63502
H        107.04936       43.09931      89.93243
H        104.82930       43.01724      89.27922
H        105.68075       46.47490      88.66087
H        102.36075       43.85980      83.93754
H        101.50323       41.98043      84.51269
H        101.71107       41.30073      86.06270
H        97.65294       39.94416      83.95542
H        95.18936       40.76389      89.79493
H        100.86410       45.22461      88.84305
H        98.38497       46.88276      88.64832
H        99.72083       47.16867      89.74914
H        97.16593       44.77241      88.87245
H        100.09924       44.20619      86.77248
H        98.60107       45.12898      86.91411
H        95.57879       42.88980      89.03090
H        97.09427       43.30670      87.05884
H        100.48796       42.26752      88.12249
H        99.51842       41.94266      89.53936
H        100.57622       43.33294      89.50457
H        99.03145       42.85672      85.72723
H        99.17607       41.30535      86.59408
H        96.73265       41.01144      85.82587
H        96.61477       43.16103      84.93720
H        95.49677       41.93870      81.36716
H        98.11718       44.05105      83.48737
H        98.89323       42.53716      83.27487
H        97.68863       39.99243      87.37304
H        96.61549       39.75616      88.78287
H        101.55578       46.40412      86.49714
H        101.44407       47.61943      87.74759
H        100.13916       47.42155      86.60255
