37

Cl 0.000 0.000 0.000
C 1.113 -1.122 -0.859
N 2.554 3.116 -0.073
N 4.568 2.601 -1.040
N 2.854 3.249 -2.417
C 1.567 3.641 -2.402
C 0.728 3.786 -1.325
C 1.225 3.510 -0.035
O 0.637 3.581 1.046
N -0.531 4.193 -1.735
C -0.432 4.294 -3.029
N 0.815 3.974 -3.497
N -2.329 -2.236 1.773
C -2.131 -3.239 0.864
N -1.685 -4.394 1.352
N -2.341 -3.113 -0.429
C -2.787 -1.883 -0.747
C -3.016 -0.812 0.082
C -2.782 -0.960 1.467
O -2.936 -0.130 2.367
N -3.472 0.279 -0.639
C -3.500 -0.139 -1.872
N -3.094 -1.441 -2.007
H 1.950 -1.351 -0.197
H 1.468 -0.628 -1.766
H 0.564 -2.032 -1.110
H -2.100 -2.372 2.742
C 3.306 2.998 -1.207
H 5.016 2.341 -1.913
H 2.959 2.944 0.831
H 4.760 1.958 -0.285
H -1.754 -5.147 0.674
H -2.029 -4.665 2.264
H -1.227 4.595 -3.698
H 1.132 3.979 -4.455
H -3.801 0.452 -2.727
H -3.031 -1.980 -2.857
