16

N          2.55400        3.11600       -0.07300
N          4.56800        2.60100       -1.04000
N          2.85400        3.24900       -2.41700
C          1.56700        3.64100       -2.40200
C          0.72800        3.78600       -1.32500
C          1.22500        3.51000       -0.03500
O          0.63700        3.58100        1.04600
N         -0.53100        4.19300       -1.73500
C         -0.43200        4.29400       -3.02900
N          0.81500        3.97400       -3.49700
C          3.30600        2.99800       -1.20700
H          5.01600        2.34100       -1.91300
H          2.95900        2.94400        0.83100
H          4.76000        1.95800       -0.28500
H         -1.22700        4.59500       -3.69800
H          1.13200        3.97900       -4.45500
