21

C 1.490043     -0.916656     0.457623 
C 1.546525     -0.535488    -0.88443
C 1.751748     1.645871    -0.503261
C 1.564496     0.105557   1.468919
C 1.328343     -2.724561   -0.657283
H 1.231006     -3.759788   -0.956185
O 1.525495     0.037138    2.687534
N 1.687928     0.706308    -1.417239
N 1.442565     -1.706008   -1.589344
N 1.35319      -2.286905    0.575668
N 1.697702     1.39432   0.844456
H 1.683848     2.165517    1.504177
N 1.822143     2.967483   -0.889551
H 2.3317       3.606823   -0.292005
H 2.021304     3.085406   -1.875831
H 1.447495     -1.789447    -2.597152
C-5.215236     0.475481   -0.908548
H -4.462597    0.721929   -1.628062
H -5.811787   1.340335   -0.705929
H -5.837344   -0.304145   -1.29593
Cl -4.448694   -0.070079    0.578859